*-----------------------------------------------------------------------
*Note: Properties L=10u W=170u Ad=8500p As=8500p Pd=440u Ps=440u NRD=0.1 NRS=0.1
.MODEL CA3086N7 NPN (
+BF=156BR=0.1 VAF=100 VAR=100 VJC=0.75V VJE=0.75V TF=0.28P TR=10N CJE=1.02P CJC=0.99P)

.MODEL CA3086P7 PNP (
+BF=156BR=0.1 VAF=100 VAR=100 VJC=0.75V VJE=0.75V TF=0.28P TR=10N CJE=1.02P CJC=0.99P)
*----------------------------------------------------------------------
