Version 4
SHEET 1 1788 680
FLAG -624 -272 VDD
IOPIN -624 -272 In
FLAG -624 -352 Q[0]
IOPIN -624 -352 In
FLAG -752 -352 D[0]
IOPIN -752 -352 In
FLAG -752 -336 WA
IOPIN -752 -336 In
FLAG -752 -320 RA
IOPIN -752 -320 In
FLAG -336 -272 VDD
IOPIN -336 -272 In
FLAG -336 -352 Q[1]
IOPIN -336 -352 In
FLAG -464 -352 D[1]
IOPIN -464 -352 In
FLAG -464 -336 WA
IOPIN -464 -336 In
FLAG -464 -320 RA
IOPIN -464 -320 In
FLAG -48 -272 VDD
IOPIN -48 -272 In
FLAG -48 -352 Q[2]
IOPIN -48 -352 In
FLAG -176 -352 D[2]
IOPIN -176 -352 In
FLAG -176 -336 WA
IOPIN -176 -336 In
FLAG -176 -320 RA
IOPIN -176 -320 In
FLAG 240 -272 VDD
IOPIN 240 -272 In
FLAG 240 -352 Q[3]
IOPIN 240 -352 In
FLAG 112 -352 D[3]
IOPIN 112 -352 In
FLAG 112 -336 WA
IOPIN 112 -336 In
FLAG 112 -320 RA
IOPIN 112 -320 In
FLAG 528 -272 VDD
IOPIN 528 -272 In
FLAG 528 -352 Q[4]
IOPIN 528 -352 In
FLAG 400 -352 D[4]
IOPIN 400 -352 In
FLAG 400 -336 WA
IOPIN 400 -336 In
FLAG 400 -320 RA
IOPIN 400 -320 In
FLAG 816 -272 VDD
IOPIN 816 -272 In
FLAG 816 -352 Q[5]
IOPIN 816 -352 In
FLAG 688 -352 D[5]
IOPIN 688 -352 In
FLAG 688 -336 WA
IOPIN 688 -336 In
FLAG 688 -320 RA
IOPIN 688 -320 In
FLAG 1104 -272 VDD
IOPIN 1104 -272 In
FLAG 1104 -352 Q[6]
IOPIN 1104 -352 In
FLAG 976 -352 D[6]
IOPIN 976 -352 In
FLAG 976 -336 WA
IOPIN 976 -336 In
FLAG 976 -320 RA
IOPIN 976 -320 In
FLAG 1392 -272 VDD
IOPIN 1392 -272 In
FLAG 1392 -352 Q[7]
IOPIN 1392 -352 In
FLAG 1264 -352 D[7]
IOPIN 1264 -352 In
FLAG 1264 -336 WA
IOPIN 1264 -336 In
FLAG 1264 -320 RA
IOPIN 1264 -320 In
FLAG 1680 -272 VDD
IOPIN 1680 -272 In
FLAG 1680 -352 Q[8]
IOPIN 1680 -352 In
FLAG 1552 -352 D[8]
IOPIN 1552 -352 In
FLAG 1552 -336 WA
IOPIN 1552 -336 In
FLAG 1552 -320 RA
IOPIN 1552 -320 In
SYMBOL 6TSRAM -704 -320 R0
SYMATTR InstName X1
SYMBOL 6TSRAM -416 -320 R0
SYMATTR InstName X2
SYMBOL 6TSRAM -128 -320 R0
SYMATTR InstName X3
SYMBOL 6TSRAM 160 -320 R0
SYMATTR InstName X4
SYMBOL 6TSRAM 448 -320 R0
SYMATTR InstName X5
SYMBOL 6TSRAM 736 -320 R0
SYMATTR InstName X6
SYMBOL 6TSRAM 1024 -320 R0
SYMATTR InstName X7
SYMBOL 6TSRAM 1312 -320 R0
SYMATTR InstName X8
SYMBOL 6TSRAM 1600 -320 R0
SYMATTR InstName X9
