Version 4
SHEET 1 880 680
WIRE 16 -64 0 -64
WIRE 160 -64 112 -64
WIRE 0 48 0 -64
WIRE 160 48 160 -64
WIRE 0 128 0 48
WIRE 16 128 0 128
WIRE 160 128 160 48
WIRE 160 128 112 128
FLAG 112 -16 VDD
IOPIN 112 -16 In
FLAG 16 80 VDD
IOPIN 16 80 In
FLAG 256 -64 Q
IOPIN 256 -64 Out
FLAG 208 -64 0
FLAG -48 -64 0
FLAG -80 -112 WA
IOPIN -80 -112 In
FLAG 176 -112 RA
IOPIN 176 -112 In
FLAG -96 -64 D
IOPIN -96 -64 In
FLAG 0 48 data
FLAG 160 48 !data
SYMBOL Gate_NOT_PARAM 64 -32 R0
SYMATTR InstName X1
SYMBOL Gate_NOT_PARAM 64 96 R180
SYMATTR InstName X2
SYMBOL nmos4 0 -112 R90
SYMATTR InstName M1
SYMATTR Value myNMOS W=myNW L=myNL
SYMBOL nmos4 256 -112 R90
SYMATTR InstName M2
SYMATTR Value myNMOS W=myNW L=myNL
TEXT -464 16 Left 2 !.inc Mod_W2017N.mod
TEXT -464 40 Left 2 !.param myPW=2u*sqrt(Speed)
TEXT -464 64 Left 2 !.param myPL=100u/sqrt(Speed)
TEXT -464 88 Left 2 !.param myNW=.6u*sqrt(Speed)
TEXT -464 112 Left 2 !.param myNL=100u/sqrt(Speed)
TEXT -464 136 Left 2 !.param Speed=100
TEXT -536 216 Left 2 !.param !val=V(VDD)-val
TEXT -536 256 Left 2 !.ic V(data)=val          V(!data)=!val
TEXT -528 184 Left 2 !.param val=0
