Version 4
SHEET 1 900 1320
WIRE 80 624 32 624
WIRE 128 624 80 624
WIRE 240 624 128 624
WIRE 336 624 240 624
WIRE 464 624 336 624
WIRE 544 624 464 624
FLAG 208 320 A[0:3]
IOPIN 208 320 In
FLAG 208 432 A[0:3]
IOPIN 208 432 In
FLAG 208 464 B[0:3]
IOPIN 208 464 In
FLAG 208 352 B[0:3]
IOPIN 208 352 In
FLAG 400 496 VDD
IOPIN 400 496 In
FLAG 400 384 VDD
IOPIN 400 384 In
FLAG 400 320 SUM[0:3]
FLAG 400 352 SUM[4]
FLAG 736 464 VDD
IOPIN 736 464 In
FLAG 624 464 C
IOPIN 624 464 In
FLAG 624 400 SUM[0:8]
FLAG 736 400 Out[0:8]
IOPIN 736 400 Out
FLAG 128 704 0
FLAG 544 624 Prod[8]
FLAG 400 432 Prod[0:7]
FLAG 624 432 Prod[0:8]
FLAG 80 624 SUM[5]
FLAG 336 624 SUM[6]
FLAG 240 624 SUM[7]
FLAG 464 624 SUM[8]
SYMBOL RCA[4] 272 352 R0
SYMATTR InstName X1
SYMBOL Multiplier[4] 272 464 R0
SYMATTR InstName X2
SYMBOL MUX[9] 672 432 R0
SYMATTR InstName X3
SYMBOL res 112 608 R0
SYMATTR InstName R1
SYMATTR Value .001
