Version 4
SHEET 1 2856 680
WIRE 352 80 -272 80
WIRE 400 80 352 80
WIRE 560 80 496 80
WIRE 720 80 656 80
WIRE -272 112 -272 80
WIRE -256 112 -272 112
WIRE -16 112 -160 112
WIRE 208 112 80 112
WIRE 352 112 352 80
WIRE 352 112 304 112
FLAG -160 160 VDD
IOPIN -160 160 In
FLAG -256 160 CTRL
FLAG -480 208 0
FLAG -480 128 CTRL
FLAG 80 160 VDD
IOPIN 80 160 In
FLAG -16 160 CTRL
FLAG 304 160 VDD
IOPIN 304 160 In
FLAG 208 160 CTRL
FLAG 816 80 CLK
IOPIN 816 80 Out
FLAG 496 128 VDD
IOPIN 496 128 In
FLAG 656 128 VDD
IOPIN 656 128 In
FLAG 816 128 VDD
IOPIN 816 128 In
FLAG -592 208 0
FLAG -592 128 VDD
FLAG 352 80 temp
SYMBOL voltage -480 112 R0
WINDOW 123 0 0 Left 2
WINDOW 39 0 0 Left 2
SYMATTR InstName V1
SYMATTR Value {CTRLvol}
SYMBOL Gate_Starved_Inverter_fast -208 144 R0
SYMATTR InstName X1
SYMBOL Gate_Starved_Inverter_fast 32 144 R0
SYMATTR InstName X2
SYMBOL Gate_Starved_Inverter_fast 256 144 R0
SYMATTR InstName X3
SYMBOL Gate_NOT_PARAM 448 112 R0
WINDOW 39 -45 65 Left 2
SYMATTR InstName X4
SYMATTR SpiceLine Speed=.1
SYMBOL Gate_NOT_PARAM 608 112 R0
WINDOW 39 -45 65 Left 2
SYMATTR InstName X5
SYMATTR SpiceLine Speed=1
SYMBOL Gate_NOT_PARAM 768 112 R0
WINDOW 39 -45 65 Left 2
SYMATTR InstName X6
SYMATTR SpiceLine Speed=10
SYMBOL voltage -592 112 R0
SYMATTR InstName V2
SYMATTR Value 5
TEXT -320 232 Left 2 !.param CTRLvol=1.6
TEXT -320 208 Left 2 !.ic V(temp)=0
TEXT -312 256 Left 2 !.tran 1u
