Version 4
SHEET 1 2856 680
WIRE 256 80 -272 80
WIRE 336 80 256 80
WIRE -272 112 -272 80
WIRE -256 112 -272 112
WIRE -16 112 -160 112
WIRE 208 112 80 112
WIRE 336 112 336 80
WIRE 336 112 304 112
FLAG -160 160 VDD
FLAG -256 160 CTRL
FLAG -480 208 0
FLAG -480 128 CTRL
FLAG -592 208 0
FLAG -592 128 VDD
FLAG 80 160 VDD
FLAG -16 160 CTRL
FLAG 304 160 VDD
FLAG 208 160 CTRL
FLAG 256 80 out
SYMBOL Gate_Starved_Inverter -208 144 R0
SYMATTR InstName X1
SYMBOL voltage -480 112 R0
WINDOW 123 0 0 Left 2
WINDOW 39 0 0 Left 2
SYMATTR InstName V1
SYMATTR Value 2
SYMBOL voltage -592 112 R0
WINDOW 123 0 0 Left 2
WINDOW 39 0 0 Left 2
SYMATTR InstName V2
SYMATTR Value 5
SYMBOL Gate_Starved_Inverter 32 144 R0
SYMATTR InstName X2
SYMBOL Gate_Starved_Inverter 256 144 R0
SYMATTR InstName X3
TEXT -336 288 Left 2 !.tran 50u
TEXT -336 264 Left 2 !.ic V(out)=0
