Version 4
SHEET 1 2856 680
WIRE 352 80 -272 80
WIRE -272 112 -272 80
WIRE -256 112 -272 112
WIRE -16 112 -160 112
WIRE 208 112 80 112
WIRE 352 112 352 80
WIRE 352 112 304 112
WIRE 544 288 464 288
WIRE 688 288 640 288
WIRE 880 288 784 288
WIRE 160 352 -176 352
WIRE 464 352 464 288
WIRE 464 352 160 352
WIRE 480 352 464 352
WIRE -176 400 -176 352
WIRE -160 400 -176 400
WIRE 96 400 -64 400
WIRE 368 400 192 400
WIRE 480 400 480 352
WIRE 480 400 464 400
FLAG -160 160 VDD
IOPIN -160 160 In
FLAG -256 160 CTRL
FLAG -480 208 0
FLAG -480 128 CTRL
FLAG 80 160 VDD
IOPIN 80 160 In
FLAG -16 160 CTRL
FLAG 304 160 VDD
IOPIN 304 160 In
FLAG 208 160 CTRL
FLAG 976 288 CLK
IOPIN 976 288 Out
FLAG -592 208 0
FLAG 352 80 temp
FLAG -64 448 VDD
IOPIN -64 448 In
FLAG 192 448 VDD
IOPIN 192 448 In
FLAG 464 448 VDD
IOPIN 464 448 In
FLAG 160 352 temp1
FLAG -160 448 CTRL
IOPIN -160 448 In
FLAG 96 448 CTRL
IOPIN 96 448 In
FLAG 368 448 CTRL
IOPIN 368 448 In
FLAG 640 336 VDD
IOPIN 640 336 In
FLAG 784 336 VDD
IOPIN 784 336 In
FLAG 976 336 VDD
IOPIN 976 336 In
SYMBOL voltage -480 112 R0
WINDOW 123 0 0 Left 2
WINDOW 39 0 0 Left 2
SYMATTR InstName V1
SYMATTR Value {CTRLvol}
SYMBOL Gate_Starved_Inverter_fast -208 144 R0
SYMATTR InstName X1
SYMBOL Gate_Starved_Inverter_fast 32 144 R0
SYMATTR InstName X2
SYMBOL Gate_Starved_Inverter_fast 256 144 R0
SYMATTR InstName X3
SYMBOL voltage -592 112 R0
SYMATTR InstName V2
SYMATTR Value 5
SYMBOL Gate_NOT_Starved_PARAM -112 432 R0
WINDOW 39 -45 65 Left 2
SYMATTR InstName X7
SYMATTR SpiceLine Speed=CLKspeed
SYMBOL Gate_NOT_Starved_PARAM 144 432 R0
WINDOW 39 -45 65 Left 2
SYMATTR InstName X8
SYMATTR SpiceLine Speed=CLKspeed
SYMBOL Gate_NOT_Starved_PARAM 416 432 R0
WINDOW 39 -45 65 Left 2
SYMATTR InstName X9
SYMATTR SpiceLine Speed=CLKspeed
SYMBOL Gate_NOT_PARAM 592 320 R0
WINDOW 39 -45 65 Left 2
SYMATTR InstName X4
SYMATTR SpiceLine Speed=200
SYMBOL Gate_NOT_PARAM 736 320 R0
WINDOW 39 -45 65 Left 2
SYMATTR InstName X5
SYMATTR SpiceLine Speed=200
SYMBOL Gate_NOT_PARAM 928 320 R0
WINDOW 39 -45 65 Left 2
SYMATTR InstName X6
SYMATTR SpiceLine Speed=200
TEXT -320 232 Left 2 !.param CTRLvol=1.6
TEXT -320 208 Left 2 !.ic V(temp)=0
TEXT -312 256 Left 2 !.tran 1u
TEXT -40 224 Left 2 !.ic V(temp1)=0
TEXT -456 520 Left 2 !.param CLKspeed=190
