Version 4
SHEET 1 900 1320
WIRE 864 480 256 480
WIRE 256 528 256 480
WIRE 288 528 256 528
WIRE 688 560 544 560
WIRE 864 560 864 480
WIRE 864 560 832 560
WIRE 688 592 640 592
WIRE 640 624 640 592
WIRE 640 624 544 624
FLAG 0 672 VDD
FLAG 16 464 CLK
FLAG 208 464 VDD
FLAG 544 704 VDD
FLAG 0 656 CLK
FLAG 288 704 CLK
FLAG -48 608 0
FLAG -48 528 VDD
FLAG 832 624 VDD
FLAG 544 592 null[0:8]
FLAG 544 656 null[9:15]
SYMBOL Counter 112 432 R0
SYMATTR InstName X2
SYMBOL CLK -48 672 R0
SYMATTR InstName X1
SYMBOL REG_FILE[4] 336 560 R0
SYMATTR InstName X3
SYMBOL voltage -48 512 R0
SYMATTR InstName V1
SYMATTR Value 5
SYMBOL ALU_ADD_MUL 736 592 R0
SYMATTR InstName X4
