Version 4
SHEET 1 1656 1320
WIRE 448 48 368 48
WIRE 736 48 704 48
WIRE 448 80 368 80
WIRE 736 80 704 80
WIRE 448 112 368 112
WIRE 736 112 704 112
WIRE 448 144 368 144
WIRE 736 144 704 144
WIRE 448 176 368 176
WIRE 736 176 704 176
WIRE 448 208 368 208
WIRE 736 208 704 208
WIRE -192 240 -224 240
WIRE 448 240 368 240
WIRE 736 240 704 240
WIRE 448 272 368 272
WIRE 736 272 704 272
WIRE 448 304 368 304
WIRE 736 304 704 304
WIRE 1056 384 704 384
WIRE 1296 384 1184 384
WIRE 1392 384 1296 384
WIRE 1568 384 1504 384
WIRE 1392 416 1264 416
WIRE 704 464 704 384
WIRE 704 464 608 464
WIRE 288 528 80 528
WIRE 608 560 608 464
WIRE 608 560 544 560
WIRE 688 560 608 560
WIRE 1008 560 832 560
WIRE 1264 560 1264 416
WIRE 1264 560 1008 560
WIRE 688 592 640 592
WIRE 640 624 640 592
WIRE 640 624 544 624
WIRE 896 624 832 624
WIRE 80 768 80 528
WIRE 1568 768 1568 384
WIRE 1568 768 80 768
FLAG -432 160 CLK
FLAG -240 160 VDD
FLAG 544 704 VDD
FLAG 288 704 CLK
FLAG -48 608 0
FLAG -48 528 VDD
FLAG 896 624 VDD
FLAG 544 592 null[0:8]
FLAG 544 656 null[9:15]
FLAG -112 560 CLK
FLAG -112 640 0
FLAG 576 0 VDD
FLAG 368 48 0
FLAG -240 96 PC[0:2]
FLAG -32 48 PC[0:1]
FLAG -192 240 PC[3]
FLAG -304 240 0
FLAG -32 80 CLK
FLAG 208 80 VDD
FLAG 208 48 WL[0:3]
FLAG 368 304 WL[0]
FLAG 368 272 WL[1]
FLAG 368 240 WL[2]
FLAG 368 208 WL[3]
FLAG 288 560 ADDR0[0:1]
FLAG 288 592 ADDR1[0:1]
FLAG 288 624 ADDR2[0:1]
FLAG 736 304 ADDR0[0]
FLAG 736 272 ADDR0[1]
FLAG 736 240 ADDR2[0]
FLAG 736 208 ADDR2[1]
FLAG 736 176 ADDR1[0]
FLAG 736 144 ADDR1[1]
FLAG 736 80 ALU
FLAG 736 48 Write
FLAG 688 624 ALU
FLAG 1184 464 VDD
FLAG 736 112 DataSelect
FLAG 1504 448 VDD
FLAG 1392 448 DataSelect
FLAG 1056 416 Write
FLAG 1056 400 ALU
FLAG 1568 384 REGIN[0:8]
FLAG 608 464 REGOUT[0:8]
FLAG 1008 560 ALUOUT[0:8]
FLAG 368 80 0
FLAG 368 112 0
FLAG 368 144 0
FLAG 368 176 0
FLAG 496 224 0
FLAG 1296 384 SRAM_OUT[0:8]
SYMBOL Counter -336 128 R0
SYMATTR InstName X2
SYMBOL REG_FILE[4] 336 560 R0
SYMATTR InstName X3
SYMBOL voltage -48 512 R0
SYMATTR InstName V1
SYMATTR Value 5
SYMBOL ALU_ADD_MUL 736 592 R0
SYMATTR InstName X4
SYMBOL voltage -112 544 R0
WINDOW 123 0 0 Left 2
WINDOW 39 0 0 Left 2
SYMATTR InstName V2
SYMATTR Value PULSE(0 5 0 1n 1n 10u 20u)
SYMBOL InstructionMemorySimple 592 208 R0
SYMATTR InstName X1
SYMBOL Decoder 16 80 R0
SYMATTR InstName X5
SYMBOL res -208 224 R90
WINDOW 0 0 56 VBottom 2
WINDOW 3 32 56 VTop 2
SYMATTR InstName R1
SYMATTR Value 1
SYMBOL SRAM 1104 416 R0
SYMATTR InstName X7
SYMBOL MUX[9] 1440 416 R0
SYMATTR InstName X8
TEXT -88 784 Left 2 !.tran 0 100u
