Version 4
SHEET 1 880 680
FLAG 368 112 VDD
IOPIN 368 112 In
FLAG 368 48 CNT[0:2]
IOPIN 368 48 Out
FLAG 384 176 NS[0:2]
FLAG 192 48 NS[0:2]
FLAG 384 240 VDD
IOPIN 384 240 In
FLAG 192 112 CLK
IOPIN 192 112 In
FLAG 192 176 CNT[0:2]
IOPIN 192 176 Out
FLAG 368 80 !Q[0:2]
SYMBOL REG[3] 240 80 R0
SYMATTR InstName X1
SYMBOL Counter_NS 288 208 R0
SYMATTR InstName X2
