Version 4
SHEET 1 880 680
WIRE 160 -880 80 -880
WIRE 160 -736 80 -736
WIRE 160 -576 80 -576
FLAG 80 -832 VDD
IOPIN 80 -832 In
FLAG -16 -880 PS[0]
IOPIN -16 -880 In
FLAG 256 -880 NS[0]
IOPIN 256 -880 Out
FLAG -16 -736 PS[0]
IOPIN -16 -736 In
FLAG -16 -672 PS[1]
IOPIN -16 -672 In
FLAG 256 -736 NS[1]
IOPIN 256 -736 Out
FLAG 80 -672 VDD
IOPIN 80 -672 In
FLAG -16 -576 PS[1]
IOPIN -16 -576 In
FLAG -16 -512 PS[2]
IOPIN -16 -512 In
FLAG 256 -576 NS[2]
IOPIN 256 -576 Out
FLAG 80 -512 VDD
IOPIN 80 -512 In
FLAG 256 -832 VDD
IOPIN 256 -832 In
FLAG 256 -688 VDD
IOPIN 256 -688 In
FLAG 256 -528 VDD
IOPIN 256 -528 In
SYMBOL Gate_NOT 32 -848 R0
SYMATTR InstName X1
SYMBOL Gate_Delay 208 -848 R0
WINDOW 39 -45 65 Left 2
SYMATTR InstName X4
SYMATTR SpiceLine Speed=.00001
SYMBOL Gate_Delay 208 -704 R0
WINDOW 39 -45 65 Left 2
SYMATTR InstName X5
SYMATTR SpiceLine Speed=.001
SYMBOL Gate_Delay 208 -544 R0
WINDOW 39 -45 65 Left 2
SYMATTR InstName X6
SYMATTR SpiceLine Speed=.001
SYMBOL Gate_XOR 32 -704 R0
SYMATTR InstName X2
SYMBOL Gate_XOR 32 -544 R0
SYMATTR InstName X3
