Version 4
SHEET 1 1132 1208
WIRE -288 -16 -448 -16
WIRE -688 112 -784 112
WIRE -288 112 -448 112
WIRE -688 176 -688 112
WIRE -544 176 -688 176
WIRE -544 240 -768 240
WIRE -288 240 -448 240
WIRE -288 368 -448 368
FLAG -544 -16 ADDR[0]
IOPIN -544 -16 In
FLAG -544 48 ADDR[1]
IOPIN -544 48 In
FLAG -448 48 VDD
IOPIN -448 48 In
FLAG -288 48 CLK
IOPIN -288 48 In
FLAG -192 48 VDD
IOPIN -192 48 In
FLAG -544 112 ADDR[1]
IOPIN -544 112 In
FLAG -880 112 ADDR[0]
IOPIN -880 112 In
FLAG -784 160 VDD
IOPIN -784 160 In
FLAG -288 176 CLK
IOPIN -288 176 In
FLAG -192 176 VDD
IOPIN -192 176 In
FLAG -544 368 ADDR[0]
IOPIN -544 368 In
FLAG -544 432 ADDR[1]
IOPIN -544 432 In
FLAG -448 432 VDD
IOPIN -448 432 In
FLAG -288 432 CLK
IOPIN -288 432 In
FLAG -192 432 VDD
IOPIN -192 432 In
FLAG -864 240 ADDR[1]
IOPIN -864 240 In
FLAG -544 304 ADDR[0]
IOPIN -544 304 In
FLAG -768 288 VDD
IOPIN -768 288 In
FLAG -288 304 CLK
IOPIN -288 304 In
FLAG -192 304 VDD
IOPIN -192 304 In
FLAG -448 304 VDD
IOPIN -448 304 In
FLAG -448 176 VDD
IOPIN -448 176 In
FLAG -192 -16 OUT[0]
IOPIN -192 -16 Out
FLAG -192 112 OUT[1]
IOPIN -192 112 Out
FLAG -192 240 OUT[2]
IOPIN -192 240 Out
FLAG -192 368 OUT[3]
IOPIN -192 368 Out
SYMBOL Gate_NOR -496 16 R0
SYMATTR InstName X11
SYMBOL Gate_AND -240 16 R0
SYMATTR InstName X12
SYMBOL Gate_NOR -496 144 R0
SYMATTR InstName X15
SYMBOL Gate_AND -240 144 R0
SYMATTR InstName X16
SYMBOL Gate_AND -240 400 R0
SYMATTR InstName X18
SYMBOL Gate_AND -496 400 R0
SYMATTR InstName X17
SYMBOL Gate_NOT -832 144 R0
SYMATTR InstName X20
SYMBOL Gate_NOR -496 272 R0
SYMATTR InstName X21
SYMBOL Gate_AND -240 272 R0
SYMATTR InstName X22
SYMBOL Gate_NOT -816 272 R0
SYMATTR InstName X23
