Version 4
SHEET 1 880 680
WIRE 272 -64 128 -64
WIRE 0 0 -112 0
WIRE 32 0 0 0
WIRE 0 48 0 0
WIRE 32 48 0 48
WIRE 272 48 128 48
WIRE 32 112 -112 112
FLAG -208 112 D
IOPIN -208 112 In
FLAG -208 0 CLK
IOPIN -208 0 In
FLAG -112 48 VDD
IOPIN -112 48 In
FLAG 32 -64 D
IOPIN 32 -64 In
FLAG 32 64 CLK
IOPIN 32 64 In
FLAG 32 -48 CLK
IOPIN 32 -48 In
FLAG 128 112 VDD
IOPIN 128 112 In
FLAG 128 0 VDD
IOPIN 128 0 In
FLAG 368 0 VDD
IOPIN 368 0 In
FLAG 368 112 VDD
IOPIN 368 112 In
FLAG 368 -64 Q
IOPIN 368 -64 Out
FLAG 368 48 !Q
IOPIN 368 48 Out
FLAG 272 0 !Q
IOPIN 272 0 Out
FLAG 272 112 Q
IOPIN 272 112 Out
FLAG -112 160 VDD
IOPIN -112 160 In
SYMBOL Gate_NOT_DFF -160 144 R0
SYMATTR InstName X2
SYMBOL Gate_NOT_slow -160 32 R0
SYMATTR InstName X1
SYMBOL Gate_NAND_DFF[3] 80 -32 R0
SYMATTR InstName X3
SYMBOL Gate_NAND_DFF[3] 80 80 R0
SYMATTR InstName X4
SYMBOL Gate_NAND_DFF 320 -32 R0
SYMATTR InstName X5
SYMBOL Gate_NAND_DFF 320 80 R0
SYMATTR InstName X6
