Version 4
SHEET 1 880 680
SYMBOL DFF 96 144 R0
SYMATTR InstName X1
