Version 4
SHEET 1 880 680
WIRE 64 -112 64 -144
WIRE 64 -112 48 -112
WIRE 0 -96 -32 -96
WIRE -32 0 -32 -96
WIRE 48 0 48 -16
WIRE 48 16 48 0
WIRE -32 96 -32 0
WIRE 0 96 -32 96
FLAG 48 0 !A
IOPIN 48 0 Out
FLAG 64 -144 VDD
IOPIN 64 -144 In
FLAG 48 208 0
FLAG 0 192 CTRL
IOPIN 0 192 In
FLAG -32 0 A
IOPIN -32 0 In
SYMBOL nmos 0 16 R0
SYMATTR InstName M1
SYMATTR Value myNMOS W=.3u L=100u
SYMBOL pmos 0 -16 M180
SYMATTR InstName M2
SYMATTR Value myPMOS W=2u L=100u
SYMBOL nmos 0 112 R0
SYMATTR InstName M3
SYMATTR Value myNMOS W=10u L=1u
TEXT -360 368 Left 2 !.model myNMOS NMOS
TEXT -360 400 Left 2 !.model myPMOS PMOS
TEXT -344 312 Left 2 !.inc Mod_W2017N.mod
