Version 4
SHEET 1 880 680
WIRE 64 -112 64 -144
WIRE 64 -112 -16 -112
WIRE -64 -96 -112 -96
WIRE 48 -16 -16 -16
WIRE 48 16 48 -16
WIRE -112 80 -112 -96
WIRE -112 96 -112 80
WIRE 0 96 -112 96
FLAG -112 80 A
IOPIN -112 80 In
FLAG 48 -16 !A
IOPIN 48 -16 Out
FLAG 64 -144 VDD
IOPIN 64 -144 In
FLAG 48 208 0
FLAG 0 192 CTRL
IOPIN 0 192 In
SYMBOL nmos 0 16 R0
SYMATTR InstName M1
SYMATTR Value W2018N
SYMBOL pmos -64 -16 M180
SYMATTR InstName M2
SYMATTR Value W2018P
SYMBOL nmos 0 112 R0
SYMATTR InstName M3
SYMATTR Value W2018N
TEXT -360 368 Left 2 !.model myNMOS NMOS
TEXT -360 400 Left 2 !.model myPMOS PMOS
TEXT -344 312 Left 2 !.inc Mod_W2017N.mod
