Version 4
SHEET 1 880 680
WIRE 64 -112 64 -144
WIRE 64 -112 -16 -112
WIRE 352 -112 64 -112
WIRE -64 -96 -112 -96
WIRE 352 -80 352 -112
WIRE 48 -16 -16 -16
WIRE 48 16 48 -16
WIRE 352 16 48 16
WIRE -112 80 -112 -96
WIRE -112 96 -112 80
WIRE 0 96 -112 96
WIRE 48 128 48 112
WIRE 0 208 -112 208
WIRE -112 224 -112 208
WIRE 48 272 48 224
WIRE -112 320 -112 224
WIRE 400 320 400 -64
WIRE 400 320 -112 320
FLAG 48 272 0
FLAG -112 80 A
IOPIN -112 80 In
FLAG -112 224 B
IOPIN -112 224 In
FLAG 48 -16 Out
IOPIN 48 -16 Out
FLAG 64 -144 VDD
IOPIN 64 -144 In
SYMBOL nmos 0 16 R0
SYMATTR InstName M1
SYMATTR Value myNMOS W=myW L=myL
SYMBOL pmos -64 -16 M180
SYMATTR InstName M2
SYMATTR Value myPMOS W=myW L=myL
SYMBOL pmos 400 16 R180
SYMATTR InstName M3
SYMATTR Value myPMOS W=myW L=myL
SYMBOL nmos 0 128 R0
SYMATTR InstName M4
SYMATTR Value myNMOS W=myW L=myL
TEXT -360 408 Left 2 !.param myW=.1u
TEXT -360 344 Left 2 !.inc Mod_W2017N.mod
TEXT -360 440 Left 2 !.param myL=500u
