Version 4
SHEET 1 880 680
FLAG -112 32 A[0]
IOPIN -112 32 In
FLAG -112 128 A[1]
IOPIN -112 128 In
FLAG -112 224 A[2]
IOPIN -112 224 In
FLAG -16 32 OUT[0]
IOPIN -16 32 Out
FLAG -16 80 VDD
IOPIN -16 80 In
FLAG -16 176 VDD
IOPIN -16 176 In
FLAG -16 272 VDD
IOPIN -16 272 In
FLAG -16 128 OUT[1]
IOPIN -16 128 Out
FLAG -16 224 OUT[2]
IOPIN -16 224 Out
SYMBOL Gate_Delay -64 64 R0
SYMATTR InstName X1
SYMBOL Gate_Delay -64 160 R0
SYMATTR InstName X2
SYMBOL Gate_Delay -64 256 R0
SYMATTR InstName X3
