Version 4
SHEET 1 880 680
WIRE 64 -112 64 -144
WIRE 64 -112 -16 -112
WIRE 208 -112 64 -112
WIRE 416 -112 208 -112
WIRE 48 -16 -16 -16
WIRE 208 -16 48 -16
WIRE 416 -16 208 -16
WIRE 48 16 48 -16
WIRE 48 128 48 112
FLAG 48 320 0
FLAG 0 208 B
IOPIN 0 208 In
FLAG 48 -16 Out
IOPIN 48 -16 Out
FLAG 64 -144 VDD
IOPIN 64 -144 In
FLAG 160 -96 B
IOPIN 160 -96 In
FLAG -64 -96 A
IOPIN -64 -96 In
FLAG 0 96 A
IOPIN 0 96 In
FLAG 0 304 C
IOPIN 0 304 In
FLAG 368 -96 C
IOPIN 368 -96 In
SYMBOL nmos 0 16 R0
SYMATTR InstName M1
SYMATTR Value RIT4007N7
SYMBOL pmos -64 -16 M180
SYMATTR InstName M4
SYMATTR Value RIT4007P7
SYMBOL pmos 160 -16 M180
SYMATTR InstName M5
SYMATTR Value RIT4007P7
SYMBOL nmos 0 128 R0
SYMATTR InstName M2
SYMATTR Value RIT4007N7
SYMBOL nmos 0 224 R0
SYMATTR InstName 3
SYMATTR Value RIT4007N7
SYMBOL pmos 368 -16 M180
SYMATTR InstName M3
SYMATTR Value RIT4007P7
TEXT -360 368 Left 2 !.inc CD4007.mod
