Version 4
SHEET 1 880 680
FLAG -112 0 A[0]
IOPIN -112 0 In
FLAG -112 128 A[1]
IOPIN -112 128 In
FLAG -112 256 A[2]
IOPIN -112 256 In
FLAG -16 0 OUT[0]
IOPIN -16 0 Out
FLAG -16 48 VDD
IOPIN -16 48 In
FLAG -16 176 VDD
IOPIN -16 176 In
FLAG -16 304 VDD
IOPIN -16 304 In
FLAG -16 128 OUT[1]
IOPIN -16 128 Out
FLAG -16 256 OUT[2]
IOPIN -16 256 Out
SYMBOL Gate_Delay -64 32 R0
WINDOW 39 -45 65 Left 2
SYMATTR InstName X1
SYMATTR SpiceLine Speed=Speed
SYMBOL Gate_Delay -64 160 R0
WINDOW 39 -45 65 Left 2
SYMATTR InstName X2
SYMATTR SpiceLine Speed=Speed
SYMBOL Gate_Delay -64 288 R0
WINDOW 39 -45 65 Left 2
SYMATTR InstName X3
SYMATTR SpiceLine Speed=Speed
TEXT -104 376 Left 2 !.param Speed=.1
