Version 4
SHEET 1 892 1308
WIRE -384 -80 -416 -80
WIRE -160 -80 -176 -80
WIRE 80 -80 64 -80
WIRE -688 80 -736 80
WIRE -448 80 -496 80
WIRE -208 80 -256 80
WIRE 16 80 -16 80
WIRE 80 224 80 -80
WIRE 128 224 80 224
WIRE 16 256 16 80
WIRE 128 256 16 256
WIRE 320 256 224 256
WIRE -688 288 -688 80
WIRE -608 288 -688 288
WIRE -464 288 -512 288
WIRE -384 288 -384 -80
WIRE -352 288 -384 288
WIRE -176 288 -240 288
WIRE -160 288 -160 -80
WIRE -112 288 -160 288
WIRE 32 288 0 288
WIRE -608 320 -640 320
WIRE -496 320 -512 320
WIRE -448 320 -448 80
WIRE -352 320 -448 320
WIRE -224 320 -240 320
WIRE -208 320 -208 80
WIRE -112 320 -208 320
WIRE 80 320 0 320
WIRE -352 352 -368 352
WIRE -112 352 -128 352
WIRE -496 416 -496 320
WIRE -496 416 -896 416
WIRE -128 416 -128 352
WIRE 320 416 320 256
WIRE 320 416 -128 416
WIRE -368 432 -368 352
WIRE 80 432 80 320
WIRE 80 432 -368 432
WIRE -640 448 -640 320
WIRE -224 448 -224 320
WIRE -224 448 -640 448
WIRE -944 496 -976 496
WIRE -656 496 -736 496
WIRE -432 496 -496 496
WIRE -16 496 -256 496
WIRE -432 624 -432 496
WIRE -208 624 -432 624
WIRE 32 624 32 288
WIRE 96 624 32 624
WIRE -16 656 -16 496
WIRE 96 656 -16 656
WIRE 304 656 192 656
WIRE -896 688 -896 416
WIRE -832 688 -896 688
WIRE -944 720 -944 496
WIRE -832 720 -944 720
WIRE -464 720 -464 288
WIRE -352 720 -464 720
WIRE -176 720 -176 288
WIRE -112 720 -176 720
WIRE -832 752 -848 752
WIRE -656 752 -656 496
WIRE -352 752 -656 752
WIRE -224 752 -240 752
WIRE -208 752 -208 624
WIRE -112 752 -208 752
WIRE 80 752 0 752
WIRE -352 784 -384 784
WIRE -112 784 -128 784
WIRE -128 848 -128 784
WIRE 304 848 304 656
WIRE 304 848 -128 848
WIRE -384 864 -384 784
WIRE 80 864 80 752
WIRE 80 864 -384 864
WIRE -848 896 -848 752
WIRE -224 896 -224 752
WIRE -224 896 -848 896
FLAG 64 -16 VDD
IOPIN 64 -16 In
FLAG 304 -16 VDD
IOPIN 304 -16 In
FLAG -176 -16 VDD
IOPIN -176 -16 In
FLAG -416 -16 VDD
IOPIN -416 -16 In
FLAG -512 -80 A[0]
IOPIN -512 -80 In
FLAG -512 -16 B[3]
IOPIN -512 -16 In
FLAG -272 -80 A[0]
IOPIN -272 -80 In
FLAG -32 -80 A[0]
IOPIN -32 -80 In
FLAG -32 -16 B[1]
IOPIN -32 -16 In
FLAG -272 -16 B[2]
IOPIN -272 -16 In
FLAG 208 -80 A[0]
IOPIN 208 -80 In
FLAG 208 -16 B[0]
IOPIN 208 -16 In
FLAG -256 144 VDD
IOPIN -256 144 In
FLAG -16 144 VDD
IOPIN -16 144 In
FLAG -496 144 VDD
IOPIN -496 144 In
FLAG -736 144 VDD
IOPIN -736 144 In
FLAG -832 80 A[1]
IOPIN -832 80 In
FLAG -832 144 B[3]
IOPIN -832 144 In
FLAG -592 80 A[1]
IOPIN -592 80 In
FLAG -352 80 A[1]
IOPIN -352 80 In
FLAG -352 144 B[1]
IOPIN -352 144 In
FLAG -592 144 B[2]
IOPIN -592 144 In
FLAG -112 80 A[1]
IOPIN -112 80 In
FLAG -112 144 B[0]
IOPIN -112 144 In
FLAG 304 -80 Prod[0]
IOPIN 304 -80 Out
FLAG 224 224 Prod[1]
IOPIN 224 224 Out
FLAG 224 288 VDD
IOPIN 224 288 In
FLAG 0 352 VDD
IOPIN 0 352 In
FLAG -240 352 VDD
IOPIN -240 352 In
FLAG -512 352 VDD
IOPIN -512 352 In
FLAG -496 560 VDD
IOPIN -496 560 In
FLAG -256 560 VDD
IOPIN -256 560 In
FLAG -736 560 VDD
IOPIN -736 560 In
FLAG -976 560 VDD
IOPIN -976 560 In
FLAG -1072 496 A[2]
IOPIN -1072 496 In
FLAG -1072 560 B[3]
IOPIN -1072 560 In
FLAG -832 496 A[2]
IOPIN -832 496 In
FLAG -592 496 A[2]
IOPIN -592 496 In
FLAG -592 560 B[1]
IOPIN -592 560 In
FLAG -832 560 B[2]
IOPIN -832 560 In
FLAG -352 496 A[2]
IOPIN -352 496 In
FLAG -352 560 B[0]
IOPIN -352 560 In
FLAG -752 992 VDD
IOPIN -752 992 In
FLAG -512 992 VDD
IOPIN -512 992 In
FLAG -992 992 VDD
IOPIN -992 992 In
FLAG -1232 992 VDD
IOPIN -1232 992 In
FLAG -1328 928 A[3]
IOPIN -1328 928 In
FLAG -1328 992 B[3]
IOPIN -1328 992 In
FLAG -848 992 B[1]
IOPIN -848 992 In
FLAG -1088 992 B[2]
IOPIN -1088 992 In
FLAG -608 992 B[0]
IOPIN -608 992 In
FLAG -432 1136 Prod[3:6]
IOPIN -432 1136 Out
FLAG -432 1168 Prod[7]
IOPIN -432 1168 Out
FLAG -432 1200 VDD
IOPIN -432 1200 In
FLAG -624 1168 PB[0:3]
FLAG -624 1136 PA[0:3]
FLAG -512 928 PB[0]
FLAG -752 928 PB[1]
FLAG -992 928 PB[2]
FLAG -1232 928 PB[3]
FLAG -1088 928 A[3]
IOPIN -1088 928 In
FLAG -848 928 A[3]
IOPIN -848 928 In
FLAG -608 928 A[3]
IOPIN -608 928 In
FLAG 192 688 VDD
IOPIN 192 688 In
FLAG 192 624 Prod[2]
IOPIN 192 624 Out
FLAG 0 720 PA[0]
FLAG 0 784 VDD
IOPIN 0 784 In
FLAG -240 784 VDD
IOPIN -240 784 In
FLAG -240 720 PA[1]
FLAG -720 752 VDD
IOPIN -720 752 In
FLAG -720 688 PA[2]
FLAG -720 720 PA[3]
SYMBOL Gate_AND -464 -48 R0
SYMATTR InstName X1
SYMBOL Gate_AND -224 -48 R0
SYMATTR InstName X2
SYMBOL Gate_AND 16 -48 R0
SYMATTR InstName X3
SYMBOL Gate_AND 256 -48 R0
SYMATTR InstName X4
SYMBOL Gate_AND -784 112 R0
SYMATTR InstName X5
SYMBOL Gate_AND -544 112 R0
SYMATTR InstName X6
SYMBOL Gate_AND -304 112 R0
SYMATTR InstName X7
SYMBOL Gate_AND -64 112 R0
SYMATTR InstName X8
SYMBOL Half_Adder 176 256 R0
SYMATTR InstName X9
SYMBOL Full_Adder -64 320 R0
SYMATTR InstName X10
SYMBOL Full_Adder -304 320 R0
SYMATTR InstName X11
SYMBOL Gate_AND -1024 528 R0
SYMATTR InstName X13
SYMBOL Gate_AND -784 528 R0
SYMATTR InstName X14
SYMBOL Gate_AND -544 528 R0
SYMATTR InstName X15
SYMBOL Gate_AND -304 528 R0
SYMATTR InstName X16
SYMBOL Gate_AND -1280 960 R0
SYMATTR InstName X17
SYMBOL Gate_AND -1040 960 R0
SYMATTR InstName X18
SYMBOL Gate_AND -800 960 R0
SYMATTR InstName X19
SYMBOL Gate_AND -560 960 R0
SYMATTR InstName X20
SYMBOL RCA[4] -560 1168 R0
SYMATTR InstName X21
SYMBOL Half_Adder 144 656 R0
SYMATTR InstName X22
SYMBOL Full_Adder -64 752 R0
SYMATTR InstName X23
SYMBOL Full_Adder -304 752 R0
SYMATTR InstName X24
SYMBOL Half_Adder -560 320 R0
SYMATTR InstName X12
SYMBOL Full_Adder -784 720 R0
SYMATTR InstName X25
