Version 4
SHEET 1 880 1320
FLAG 432 160 Out[0]
IOPIN 432 160 Out
FLAG 432 224 VDD
IOPIN 432 224 In
FLAG 320 160 A[0]
IOPIN 320 160 In
FLAG 320 192 B[0]
IOPIN 320 192 In
FLAG 320 224 C
IOPIN 320 224 In
FLAG 432 288 Out[1]
IOPIN 432 288 Out
FLAG 432 352 VDD
IOPIN 432 352 In
FLAG 320 288 A[1]
IOPIN 320 288 In
FLAG 320 320 B[1]
IOPIN 320 320 In
FLAG 320 352 C
IOPIN 320 352 In
FLAG 432 416 Out[2]
IOPIN 432 416 Out
FLAG 432 480 VDD
IOPIN 432 480 In
FLAG 320 416 A[2]
IOPIN 320 416 In
FLAG 320 448 B[2]
IOPIN 320 448 In
FLAG 320 480 C
IOPIN 320 480 In
FLAG 432 544 Out[3]
IOPIN 432 544 Out
FLAG 432 608 VDD
IOPIN 432 608 In
FLAG 320 544 A[3]
IOPIN 320 544 In
FLAG 320 576 B[3]
IOPIN 320 576 In
FLAG 320 608 C
IOPIN 320 608 In
FLAG 432 672 Out[4]
IOPIN 432 672 Out
FLAG 432 736 VDD
IOPIN 432 736 In
FLAG 320 672 A[4]
IOPIN 320 672 In
FLAG 320 704 B[4]
IOPIN 320 704 In
FLAG 320 736 C
IOPIN 320 736 In
FLAG 432 800 Out[5]
IOPIN 432 800 Out
FLAG 432 864 VDD
IOPIN 432 864 In
FLAG 320 800 A[5]
IOPIN 320 800 In
FLAG 320 832 B[5]
IOPIN 320 832 In
FLAG 320 864 C
IOPIN 320 864 In
FLAG 432 928 Out[6]
IOPIN 432 928 Out
FLAG 432 992 VDD
IOPIN 432 992 In
FLAG 320 928 A[6]
IOPIN 320 928 In
FLAG 320 960 B[6]
IOPIN 320 960 In
FLAG 320 992 C
IOPIN 320 992 In
FLAG 432 1056 Out[7]
IOPIN 432 1056 Out
FLAG 432 1120 VDD
IOPIN 432 1120 In
FLAG 320 1056 A[7]
IOPIN 320 1056 In
FLAG 320 1088 B[7]
IOPIN 320 1088 In
FLAG 320 1120 C
IOPIN 320 1120 In
FLAG 432 1184 Out[8]
IOPIN 432 1184 Out
FLAG 432 1248 VDD
IOPIN 432 1248 In
FLAG 320 1184 A[8]
IOPIN 320 1184 In
FLAG 320 1216 B[8]
IOPIN 320 1216 In
FLAG 320 1248 C
IOPIN 320 1248 In
SYMBOL MUX 368 192 R0
SYMATTR InstName X1
SYMBOL MUX 368 320 R0
SYMATTR InstName X2
SYMBOL MUX 368 448 R0
SYMATTR InstName X3
SYMBOL MUX 368 576 R0
SYMATTR InstName X4
SYMBOL MUX 368 704 R0
SYMATTR InstName X5
SYMBOL MUX 368 832 R0
SYMATTR InstName X6
SYMBOL MUX 368 960 R0
SYMATTR InstName X7
SYMBOL MUX 368 1088 R0
SYMATTR InstName X8
SYMBOL MUX 368 1216 R0
SYMATTR InstName X9
