Version 4
SHEET 1 880 680
FLAG 368 112 VDD
IOPIN 368 112 In
FLAG 368 -16 VDD
IOPIN 368 -16 In
FLAG 368 240 VDD
IOPIN 368 240 In
FLAG 368 -80 Q[0:2]
IOPIN 368 -80 Out
FLAG 368 -48 !Q[0:2]
IOPIN 368 -48 Out
FLAG 368 48 Q[3:5]
IOPIN 368 48 Out
FLAG 368 80 !Q[3:5]
IOPIN 368 80 Out
FLAG 368 176 Q[6:8]
IOPIN 368 176 Out
FLAG 368 208 !Q[6:8]
IOPIN 368 208 Out
FLAG 192 176 D[6:8]
IOPIN 192 176 In
FLAG 192 240 CLK
IOPIN 192 240 In
FLAG 192 48 D[3:5]
IOPIN 192 48 In
FLAG 192 -80 D[0:2]
IOPIN 192 -80 In
FLAG 192 112 CLK
IOPIN 192 112 In
FLAG 192 -16 CLK
IOPIN 192 -16 In
SYMBOL REG[3] 240 -48 R0
SYMATTR InstName X1
SYMBOL REG[3] 240 80 R0
SYMATTR InstName X2
SYMBOL REG[3] 240 208 R0
SYMATTR InstName X3
