Version 4
SHEET 1 1132 1208
WIRE 608 -80 368 -80
WIRE 784 -80 720 -80
WIRE 432 -48 368 -48
WIRE 608 -48 464 -48
WIRE -288 -16 -448 -16
WIRE 192 -16 -192 -16
WIRE 784 -16 784 -80
WIRE 864 -16 784 -16
WIRE 864 16 784 16
WIRE 464 48 464 -48
WIRE 464 48 368 48
WIRE 608 64 496 64
WIRE 784 64 784 16
WIRE 784 64 720 64
WIRE 400 80 368 80
WIRE 416 80 400 80
WIRE 608 96 528 96
WIRE -688 112 -784 112
WIRE -288 112 -448 112
WIRE 192 112 -192 112
WIRE -688 176 -688 112
WIRE -544 176 -688 176
WIRE 496 176 496 64
WIRE 496 176 368 176
WIRE 384 208 368 208
WIRE 432 208 432 -48
WIRE 608 208 432 208
WIRE 784 208 720 208
WIRE -544 240 -768 240
WIRE -288 240 -448 240
WIRE 192 240 -192 240
WIRE 416 240 416 80
WIRE 608 240 416 240
WIRE 784 272 784 208
WIRE 864 272 784 272
WIRE 528 304 528 96
WIRE 528 304 368 304
WIRE 864 304 784 304
WIRE 448 336 368 336
WIRE 384 352 384 208
WIRE 464 352 384 352
WIRE 608 352 464 352
WIRE 784 352 784 304
WIRE 784 352 720 352
WIRE -288 368 -448 368
WIRE 192 368 -192 368
WIRE 448 384 448 336
WIRE 608 384 448 384
WIRE 416 640 416 240
WIRE 608 640 416 640
WIRE 784 640 720 640
WIRE 400 672 400 80
WIRE 608 672 400 672
WIRE 784 704 784 640
WIRE 864 704 784 704
WIRE 864 736 784 736
WIRE 464 784 464 352
WIRE 608 784 464 784
WIRE 784 784 784 736
WIRE 784 784 720 784
WIRE 448 816 448 384
WIRE 608 816 448 816
WIRE 416 928 416 640
WIRE 608 928 416 928
WIRE 784 928 720 928
WIRE 400 960 400 672
WIRE 608 960 400 960
WIRE 784 992 784 928
WIRE 864 992 784 992
WIRE 864 1024 784 1024
WIRE 464 1072 464 784
WIRE 608 1072 464 1072
WIRE 784 1072 784 1024
WIRE 784 1072 720 1072
WIRE 448 1104 448 816
WIRE 608 1104 448 1104
FLAG 368 112 VDD
IOPIN 368 112 In
FLAG 368 -16 VDD
IOPIN 368 -16 In
FLAG 368 240 VDD
IOPIN 368 240 In
FLAG 192 -80 D[0:8]
IOPIN 192 -80 In
FLAG 368 368 VDD
IOPIN 368 368 In
FLAG 192 48 D[0:8]
IOPIN 192 48 In
FLAG 192 176 D[0:8]
IOPIN 192 176 In
FLAG 192 304 D[0:8]
IOPIN 192 304 In
FLAG 864 48 ADDR1[1]
IOPIN 864 48 In
FLAG 608 128 ADDR1[0]
IOPIN 608 128 In
FLAG 608 -16 ADDR1[0]
IOPIN 608 -16 In
FLAG 976 -16 Q[0:8]
IOPIN 976 -16 Out
FLAG 976 48 VDD
IOPIN 976 48 In
FLAG 720 128 VDD
IOPIN 720 128 In
FLAG 720 -16 VDD
IOPIN 720 -16 In
FLAG 864 336 ADDR1[1]
IOPIN 864 336 In
FLAG 608 416 ADDR1[0]
IOPIN 608 416 In
FLAG 608 272 ADDR1[0]
IOPIN 608 272 In
FLAG 976 272 !Q[0:8]
IOPIN 976 272 Out
FLAG 976 336 VDD
IOPIN 976 336 In
FLAG 720 416 VDD
IOPIN 720 416 In
FLAG 720 272 VDD
IOPIN 720 272 In
FLAG -544 -16 ADDR0[0]
IOPIN -544 -16 In
FLAG -544 48 ADDR0[1]
IOPIN -544 48 In
FLAG -448 48 VDD
IOPIN -448 48 In
FLAG -288 48 CLK
IOPIN -288 48 In
FLAG -192 48 VDD
IOPIN -192 48 In
FLAG -544 112 ADDR0[0]
IOPIN -544 112 In
FLAG -880 112 ADDR0[1]
IOPIN -880 112 In
FLAG -784 160 VDD
IOPIN -784 160 In
FLAG -288 176 CLK
IOPIN -288 176 In
FLAG -192 176 VDD
IOPIN -192 176 In
FLAG -544 368 ADDR0[0]
IOPIN -544 368 In
FLAG -544 432 ADDR0[1]
IOPIN -544 432 In
FLAG -448 432 VDD
IOPIN -448 432 In
FLAG -288 432 CLK
IOPIN -288 432 In
FLAG -192 432 VDD
IOPIN -192 432 In
FLAG -864 240 ADDR0[0]
IOPIN -864 240 In
FLAG -544 304 ADDR0[1]
IOPIN -544 304 In
FLAG -768 288 VDD
IOPIN -768 288 In
FLAG -288 304 CLK
IOPIN -288 304 In
FLAG -192 304 VDD
IOPIN -192 304 In
FLAG 864 768 ADDR2[1]
IOPIN 864 768 In
FLAG 608 848 ADDR2[0]
IOPIN 608 848 In
FLAG 608 704 ADDR2[0]
IOPIN 608 704 In
FLAG 976 704 Q[0:8]
IOPIN 976 704 Out
FLAG 976 768 VDD
IOPIN 976 768 In
FLAG 720 848 VDD
IOPIN 720 848 In
FLAG 720 704 VDD
IOPIN 720 704 In
FLAG 864 1056 ADDR2[1]
IOPIN 864 1056 In
FLAG 608 1136 ADDR2[0]
IOPIN 608 1136 In
FLAG 608 992 ADDR2[0]
IOPIN 608 992 In
FLAG 976 992 !Q[0:8]
IOPIN 976 992 Out
FLAG 976 1056 VDD
IOPIN 976 1056 In
FLAG 720 1136 VDD
IOPIN 720 1136 In
FLAG 720 992 VDD
IOPIN 720 992 In
FLAG -448 304 VDD
IOPIN -448 304 In
FLAG -448 176 VDD
IOPIN -448 176 In
SYMBOL REG[9] 240 -48 R0
SYMATTR InstName X1
SYMBOL REG[9] 240 80 R0
SYMATTR InstName X2
SYMBOL REG[9] 240 208 R0
SYMATTR InstName X3
SYMBOL REG[9] 240 336 R0
SYMATTR InstName X4
SYMBOL MUX[9] 656 -48 R0
SYMATTR InstName X5
SYMBOL MUX[9] 656 96 R0
SYMATTR InstName X6
SYMBOL MUX[9] 912 16 R0
SYMATTR InstName X7
SYMBOL MUX[9] 656 240 R0
SYMATTR InstName X8
SYMBOL MUX[9] 656 384 R0
SYMATTR InstName X9
SYMBOL MUX[9] 912 304 R0
SYMATTR InstName X10
SYMBOL Gate_NOR -496 16 R0
SYMATTR InstName X11
SYMBOL Gate_AND -240 16 R0
SYMATTR InstName X12
SYMBOL Gate_NOR -496 144 R0
SYMATTR InstName X15
SYMBOL Gate_AND -240 144 R0
SYMATTR InstName X16
SYMBOL Gate_AND -240 400 R0
SYMATTR InstName X18
SYMBOL Gate_AND -496 400 R0
SYMATTR InstName X17
SYMBOL Gate_NOT -832 144 R0
SYMATTR InstName X20
SYMBOL Gate_NOR -496 272 R0
SYMATTR InstName X21
SYMBOL Gate_AND -240 272 R0
SYMATTR InstName X22
SYMBOL Gate_NOT -816 272 R0
SYMATTR InstName X23
SYMBOL MUX[9] 656 672 R0
SYMATTR InstName X13
SYMBOL MUX[9] 656 816 R0
SYMATTR InstName X14
SYMBOL MUX[9] 912 736 R0
SYMATTR InstName X19
SYMBOL MUX[9] 656 960 R0
SYMATTR InstName X24
SYMBOL MUX[9] 656 1104 R0
SYMATTR InstName X25
SYMBOL MUX[9] 912 1024 R0
SYMATTR InstName X26
