Version 4
SHEET 1 2856 680
WIRE -208 80 -272 80
WIRE -144 80 -208 80
WIRE -272 112 -272 80
WIRE -256 112 -272 112
WIRE -144 112 -144 80
WIRE -144 112 -160 112
FLAG -160 160 VDD
FLAG -256 160 CTRL
FLAG -480 208 0
FLAG -480 128 CTRL
FLAG -208 80 out
SYMBOL Gate_Starved_Inverter -208 144 R0
SYMATTR InstName X1
SYMBOL voltage -480 112 R0
WINDOW 123 0 0 Left 2
WINDOW 39 0 0 Left 2
SYMATTR InstName V1
SYMATTR Value 1
TEXT -336 288 Left 2 !.tran 64m
TEXT -336 264 Left 2 !.ic V(out)=5
