Version 4
SHEET 1 1788 680
FLAG 64 -272 VDD
IOPIN 64 -272 In
FLAG 64 -464 VDD
IOPIN 64 -464 In
FLAG -64 -544 D[0:8]
IOPIN -64 -544 In
FLAG -64 -352 D[0:8]
IOPIN -64 -352 In
FLAG 64 -544 Q[0:8]
IOPIN 64 -544 Out
FLAG 64 -352 Q[0:8]
IOPIN 64 -352 Out
FLAG -480 -448 ADDRB[0:1]
FLAG -400 -512 ADDRB[1]
FLAG -400 -576 ADDRB[0]
FLAG -240 -448 OUT[0:3]
FLAG -240 -416 VDD
IOPIN -240 -416 In
FLAG -480 -576 WE
IOPIN -480 -576 In
FLAG -480 -416 VDD
IOPIN -480 -416 In
FLAG -480 -512 ADDR
IOPIN -480 -512 In
FLAG -64 -528 OUT[1]
FLAG -64 -512 OUT[0]
FLAG -64 -336 OUT[3]
FLAG -64 -320 OUT[2]
SYMBOL 6TSRAM[9] -16 -512 R0
SYMATTR InstName X1
SYMBOL 6TSRAM[9] -16 -320 R0
SYMATTR InstName X2
SYMBOL Decoder -432 -416 R0
SYMATTR InstName X4
SYMBOL res -384 -528 R90
WINDOW 0 0 56 VBottom 2
WINDOW 3 32 56 VTop 2
SYMATTR InstName R1
SYMATTR Value 1
SYMBOL res -384 -592 R90
WINDOW 0 0 56 VBottom 2
WINDOW 3 32 56 VTop 2
SYMATTR InstName R2
SYMATTR Value 1
