Version 4
SHEET 1 1788 680
FLAG 64 -272 VDD
IOPIN 64 -272 In
FLAG 64 -464 VDD
IOPIN 64 -464 In
FLAG -64 -544 D[0:8]
IOPIN -64 -544 In
FLAG -64 -352 D[0:8]
IOPIN -64 -352 In
FLAG 64 -544 Q[0:8]
IOPIN 64 -544 In
FLAG 64 -352 Q[0:8]
IOPIN 64 -352 In
FLAG -64 -528 WA[0]
IOPIN -64 -528 In
FLAG -64 -512 RA[0]
IOPIN -64 -512 In
FLAG -64 -336 WA[1]
IOPIN -64 -336 In
FLAG -64 -320 RA[1]
IOPIN -64 -320 In
SYMBOL 6TSRAM[9] -16 -512 R0
SYMATTR InstName X1
SYMBOL 6TSRAM[9] -16 -320 R0
SYMATTR InstName X2
