Version 4
SHEET 1 1788 680
FLAG 64 -272 VDD
IOPIN 64 -272 In
FLAG 64 -464 VDD
IOPIN 64 -464 In
FLAG -64 -544 D[0:8]
IOPIN -64 -544 In
FLAG -64 -352 D[0:8]
IOPIN -64 -352 In
FLAG 64 -544 Qint[0:8]
FLAG 64 -352 Qint[0:8]
FLAG -480 -448 ADDRB[0:1]
FLAG -400 -512 ADDRB[1]
FLAG -400 -576 ADDRB[0]
FLAG -240 -448 OUT[0:3]
FLAG -240 -416 VDD
IOPIN -240 -416 In
FLAG -480 -576 WE
IOPIN -480 -576 In
FLAG -480 -416 VDD
IOPIN -480 -416 In
FLAG -480 -512 ADDR
IOPIN -480 -512 In
FLAG -64 -528 OUT[1]
FLAG -64 -512 OUT[0]
FLAG -64 -336 OUT[3]
FLAG -64 -320 OUT[2]
FLAG 704 -640 VDD
IOPIN 704 -640 In
FLAG 608 -688 Qint[0]
FLAG 704 -688 Q[0]
IOPIN 704 -688 Out
FLAG 704 -528 VDD
IOPIN 704 -528 In
FLAG 608 -576 Qint[1]
FLAG 704 -576 Q[1]
IOPIN 704 -576 Out
FLAG 704 -416 VDD
IOPIN 704 -416 In
FLAG 608 -464 Qint[2]
FLAG 704 -464 Q[2]
IOPIN 704 -464 Out
FLAG 704 -288 VDD
IOPIN 704 -288 In
FLAG 608 -336 Qint[3]
FLAG 704 -336 Q[3]
IOPIN 704 -336 Out
FLAG 704 -176 VDD
IOPIN 704 -176 In
FLAG 608 -224 Qint[4]
FLAG 704 -224 Q[4]
IOPIN 704 -224 Out
FLAG 704 -64 VDD
IOPIN 704 -64 In
FLAG 608 -112 Qint[5]
FLAG 704 -112 Q[5]
IOPIN 704 -112 Out
FLAG 720 64 VDD
IOPIN 720 64 In
FLAG 624 16 Qint[6]
FLAG 720 16 Q[6]
IOPIN 720 16 Out
FLAG 720 176 VDD
IOPIN 720 176 In
FLAG 624 128 Qint[7]
FLAG 720 128 Q[7]
IOPIN 720 128 Out
FLAG 720 288 VDD
IOPIN 720 288 In
FLAG 624 240 Qint[8]
FLAG 720 240 Q[8]
IOPIN 720 240 Out
SYMBOL 6TSRAM[9] -16 -512 R0
SYMATTR InstName X1
SYMBOL 6TSRAM[9] -16 -320 R0
SYMATTR InstName X2
SYMBOL Decoder -432 -416 R0
SYMATTR InstName X4
SYMBOL res -384 -528 R90
WINDOW 0 0 56 VBottom 2
WINDOW 3 32 56 VTop 2
SYMATTR InstName R1
SYMATTR Value 1
SYMBOL res -384 -592 R90
WINDOW 0 0 56 VBottom 2
WINDOW 3 32 56 VTop 2
SYMATTR InstName R2
SYMATTR Value 1
SYMBOL Gate_NOT 656 -656 R0
SYMATTR InstName X3
SYMBOL Gate_NOT 656 -544 R0
SYMATTR InstName X5
SYMBOL Gate_NOT 656 -432 R0
SYMATTR InstName X6
SYMBOL Gate_NOT 656 -304 R0
SYMATTR InstName X7
SYMBOL Gate_NOT 656 -192 R0
SYMATTR InstName X8
SYMBOL Gate_NOT 656 -80 R0
SYMATTR InstName X9
SYMBOL Gate_NOT 672 48 R0
SYMATTR InstName X10
SYMBOL Gate_NOT 672 160 R0
SYMATTR InstName X11
SYMBOL Gate_NOT 672 272 R0
SYMATTR InstName X12
