Version 4
SHEET 1 880 680
FLAG 256 112 Out[0:8]
FLAG 112 112 A[0:3]
FLAG 256 176 VDD
FLAG 112 144 B[0:3]
FLAG 112 176 C
SYMBOL ALU_ADD_MUL 160 144 R0
SYMATTR InstName X1
TEXT -48 320 Left 2 !.inc Test_inputA[9]B[9]C.txt
TEXT -48 272 Left 2 !.tran 1024m
