Version 4
SHEET 1 880 680
FLAG 64 176 Out
FLAG -32 176 A
FLAG 64 224 VDD
SYMBOL Gate_Delay 16 208 R0
WINDOW 39 -45 65 Left 2
SYMATTR InstName X1
SYMATTR SpiceLine Speed=.1
TEXT -48 296 Left 2 !.tran 16m
TEXT -48 320 Left 2 !.inc Test_inputA-D.txt
