Version 4
SHEET 1 880 680
FLAG 112 160 Out
FLAG -16 160 A
FLAG -16 224 C
FLAG 112 224 VDD
FLAG -16 192 B
SYMBOL Gate_NAND3_PARAM 48 192 R0
SYMATTR InstName X1
TEXT -48 296 Left 2 !.tran 16m
TEXT -48 320 Left 2 !.inc Test_inputA-D.txt
