Version 4
SHEET 1 880 680
FLAG 224 112 Out
FLAG 112 112 A
FLAG 224 176 VDD
FLAG 112 144 B
FLAG 112 176 C
SYMBOL MUX 160 144 R0
SYMATTR InstName X1
TEXT -48 296 Left 2 !.tran 256m
TEXT -48 320 Left 2 !.inc Test_inputA-D.txt
