Version 4
SHEET 1 880 680
FLAG 224 112 Out
FLAG 128 112 A
FLAG 128 176 B
FLAG 224 176 VDD
FLAG 224 48 0
SYMBOL cap 208 48 R0
SYMATTR InstName C1
SYMATTR Value 10µ
SYMBOL OR_Gate 176 144 R0
SYMATTR InstName X1
TEXT -48 296 Left 2 !.tran 15m
TEXT -48 320 Left 2 !.inc Test_inputA-D.txt
