Version 4
SHEET 1 880 680
FLAG 48 176 CLK
FLAG 48 112 B
FLAG 160 176 VDD
FLAG 160 112 Q
FLAG 160 144 !Q
SYMBOL DFF 96 144 R0
SYMATTR InstName X1
TEXT -32 240 Left 2 !.tran 16m
TEXT -32 264 Left 2 !.inc Test_input_DFF.txt
