Version 4
SHEET 1 880 680
FLAG 224 112 Out
FLAG 128 112 A
FLAG 128 176 B
FLAG 224 176 VDD
SYMBOL Gate_NAND_PARAM 176 144 R0
WINDOW 39 -45 82 Left 2
SYMATTR InstName X1
SYMATTR SpiceLine Speed=100
TEXT -48 296 Left 2 !.tran 16m
TEXT -48 320 Left 2 !.inc Test_inputA-D.txt
