Version 4
SHEET 1 880 680
FLAG -256 -48 Osum[0:3]
FLAG -256 -16 OCo
FLAG -416 -48 A[0:3]
FLAG -416 -16 B[0:3]
FLAG -256 16 VDD
SYMBOL RCA4 -352 -16 R0
SYMATTR InstName X1
TEXT -440 136 Left 2 !.inc Test_inputA-B[4].txt
TEXT -440 168 Left 2 !.tran 256m
