Version 4
SHEET 1 880 680
FLAG -448 -48 A[0:3]
FLAG -448 -16 B[0:3]
FLAG -256 16 VDD
FLAG -256 -48 Product[0:7]
SYMBOL Multiplier[4] -384 -16 R0
SYMATTR InstName X1
TEXT -440 136 Left 2 !.inc Test_inputA-B[4].txt
TEXT -440 168 Left 2 !.tran 256m
