Version 4
SHEET 1 880 680
FLAG 224 112 Out
FLAG 128 112 A
FLAG 224 160 VDD
SYMBOL Gate_NOT 176 144 R0
SYMATTR InstName X2
TEXT -48 296 Left 2 !.tran 15m
TEXT -48 320 Left 2 !.inc Test_inputA-D.txt
