Version 4
SHEET 1 880 680
FLAG 224 112 Out[0:8]
FLAG 112 112 A[0:8]
FLAG 224 176 VDD
FLAG 112 144 B[0:8]
FLAG 112 176 C
SYMBOL MUX[9] 160 144 R0
SYMATTR InstName X1
TEXT -48 296 Left 2 !.tran 1024m
TEXT -48 320 Left 2 !.inc Test_inputA[9]B[9]C.txt
