Version 4
SHEET 1 880 680
FLAG -256 112 A
FLAG -160 160 VDD
FLAG -256 160 CTRL
FLAG -160 112 !A
FLAG -384 128 CTRL
FLAG -384 208 0
SYMBOL Gate_Starved_Inverter -208 144 R0
SYMATTR InstName X1
SYMBOL voltage -384 112 R0
WINDOW 123 0 0 Left 2
WINDOW 39 0 0 Left 2
SYMATTR InstName V1
SYMATTR Value 5
TEXT -336 216 Left 2 !.tran 4m
TEXT -336 240 Left 2 !.inc Test_inputA-D.txt
