Version 4
SHEET 1 880 680
WIRE -32 176 -112 176
FLAG 160 176 VDD
FLAG 160 112 CNT[0:2]
FLAG -112 192 VDD
FLAG 304 256 0
FLAG 304 176 VDD
SYMBOL Counter 64 144 R0
SYMATTR InstName X1
SYMBOL CLK -160 192 R0
SYMATTR InstName X2
SYMBOL voltage 304 160 R0
SYMATTR InstName V1
SYMATTR Value 5
TEXT -32 240 Left 2 !.tran 1u
