Version 4
SHEET 1 880 680
FLAG 64 160 VDD
FLAG -112 240 0
FLAG -112 160 VDD
FLAG 64 144 CLK
SYMBOL CLK 16 160 R0
SYMATTR InstName X1
SYMBOL voltage -112 144 R0
SYMATTR InstName V1
SYMATTR Value 5
TEXT -32 240 Left 2 !.tran 1u
