Version 4
SHEET 1 880 680
FLAG 48 144 CLK
FLAG 48 112 A[0:1]
FLAG 288 144 VDD
FLAG 288 112 OUT[0:4]
SYMBOL Decoder 96 144 R0
SYMATTR InstName X1
TEXT -32 240 Left 2 !.tran 16m
TEXT -32 264 Left 2 !.inc Test_inputAB[4].txt
