Version 4
SHEET 1 880 680
FLAG 48 176 CLK
FLAG 48 112 A[0:2]
FLAG 224 176 VDD
FLAG 224 112 Q[0:2]
FLAG 224 144 !Q[0:2]
SYMBOL REG[3] 96 144 R0
SYMATTR InstName X1
TEXT -32 240 Left 2 !.tran 16m
TEXT -32 264 Left 2 !.inc Test_inputAB[4].txt
