Version 4
SHEET 1 880 680
WIRE -400 176 -480 176
WIRE -208 176 -304 176
WIRE -32 176 -112 176
WIRE -480 192 -480 176
WIRE -480 192 -528 192
FLAG 160 176 VDD
FLAG 160 112 CNT[0:2]
FLAG -528 208 VDD
FLAG 304 256 0
FLAG 304 176 VDD
FLAG -112 224 VDD
IOPIN -112 224 In
FLAG -304 224 VDD
IOPIN -304 224 In
SYMBOL Counter 64 144 R0
SYMATTR InstName X1
SYMBOL CLK -576 208 R0
SYMATTR InstName X2
SYMBOL voltage 304 160 R0
SYMATTR InstName V1
SYMATTR Value 5
SYMBOL Gate_NOT_PARAM -160 208 R0
WINDOW 39 -45 65 Left 2
SYMATTR SpiceLine Speed=10000
SYMATTR InstName X3
SYMBOL Gate_NOT_PARAM -352 208 R0
WINDOW 39 -45 65 Left 2
SYMATTR SpiceLine Speed=2000
SYMATTR InstName X4
TEXT -544 352 Left 2 !.tran 2u
