Version 4
SHEET 1 880 680
FLAG -256 -48 Osum[0:3]
FLAG -256 -16 OCo
FLAG -448 -48 A[0:3]
FLAG -448 -16 B[0:3]
FLAG -256 16 VDD
SYMBOL RCA[4] -384 -16 R0
SYMATTR InstName X2
TEXT -440 136 Left 2 !.inc Test_inputA-B[4].txt
TEXT -440 168 Left 2 !.tran 256m
