Version 4
SHEET 1 880 680
FLAG 64 176 Out
FLAG -32 176 A
FLAG 64 224 VDD
SYMBOL Gate_NOT 16 208 R0
SYMATTR InstName X2
TEXT -48 296 Left 2 !.tran 15m
TEXT -48 320 Left 2 !.inc Test_inputA-D.txt
